LTspice 24.1.10 for Windows
Circuit: C:\Users\sanjit\Documents\LIC\Project_police_light_flashing_effect.net
Start Time: Fri Dec  5 11:50:41 2025
solver = Normal
Maximum thread count: 12
tnom = 27
temp = 27
method = trap
Direct Newton iteration for .op point succeeded.
Total elapsed time: 0.203 seconds.

Files loaded:
C:\Users\sanjit\Documents\LIC\Project_police_light_flashing_effect.net
C:\Users\sanjit\AppData\Local\LTspice\lib\cmp\standard.dio
C:\Users\sanjit\AppData\Local\LTspice\lib\sub\NE555.sub

